Version 4.1
SHEET 1 2216 804
WIRE 912 -400 -176 -400
WIRE 1408 -352 1408 -368
WIRE -48 -336 -128 -336
WIRE -16 -336 -48 -336
WIRE 512 -336 432 -336
WIRE 656 -336 512 -336
WIRE 736 -336 656 -336
WIRE 960 -336 736 -336
WIRE 992 -336 960 -336
WIRE 1120 -336 992 -336
WIRE 1280 -336 1280 -368
WIRE 1280 -336 1120 -336
WIRE -128 -320 -128 -336
WIRE 512 -320 512 -336
WIRE 736 -320 736 -336
WIRE -48 -240 -48 -336
WIRE -16 -240 -48 -240
WIRE 512 -240 512 -256
WIRE 512 -240 432 -240
WIRE 992 -240 992 -336
WIRE -128 -224 -128 -240
WIRE 736 -224 736 -256
WIRE 656 -192 656 -336
WIRE 1120 -176 1120 -336
WIRE -48 -144 -128 -144
WIRE -16 -144 -48 -144
WIRE -128 -128 -128 -144
WIRE -128 -48 -128 -64
WIRE -48 -48 -48 -144
WIRE -16 -48 -48 -48
WIRE 704 -48 432 -48
WIRE 912 -48 912 -400
WIRE 912 -48 784 -48
WIRE -176 48 -176 -400
WIRE -48 48 -176 48
WIRE -16 48 -48 48
WIRE 656 48 656 -112
WIRE 656 48 432 48
WIRE -176 144 -176 112
WIRE -48 144 -48 48
WIRE -16 144 -48 144
WIRE 464 144 432 144
WIRE -176 240 -176 224
WIRE -16 240 -176 240
WIRE 464 240 464 144
WIRE 464 240 432 240
WIRE -176 256 -176 240
WIRE -176 336 -176 320
WIRE 464 336 432 336
WIRE -768 384 -768 352
WIRE -768 416 -768 384
WIRE -16 432 -256 432
WIRE 464 432 464 336
WIRE 464 432 432 432
WIRE 560 432 464 432
WIRE -256 448 -256 432
WIRE 560 448 560 432
WIRE -112 528 -192 528
WIRE -16 528 -112 528
WIRE 464 528 432 528
WIRE -256 544 -256 528
WIRE -112 544 -112 528
WIRE 560 544 560 528
WIRE -192 592 -192 528
WIRE -112 624 -112 608
WIRE -16 624 -32 624
WIRE 464 624 432 624
WIRE -192 704 -192 656
WIRE -112 704 -192 704
WIRE -112 720 -112 704
WIRE 80 720 80 688
WIRE 208 720 208 688
WIRE 336 720 336 688
FLAG 80 720 0
FLAG 208 720 0
FLAG 336 720 0
FLAG 736 -224 0
FLAG 960 -336 OUT
FLAG -128 -48 0
FLAG -128 -224 0
FLAG -256 544 0
FLAG 560 544 0
FLAG 464 624 0
FLAG 464 528 0
FLAG -112 720 0
FLAG -176 336 0
FLAG -176 112 OUT
FLAG -128 -336 IN
FLAG -768 496 0
FLAG -768 384 clk
FLAG -16 336 clk
FLAG 1120 -96 0
FLAG 1408 -272 0
FLAG 992 -96 0
SYMBOL cap -144 -128 R0
SYMATTR InstName C2
SYMATTR Value 4.7µ
SYMBOL voltage -128 -336 R0
WINDOW 123 0 0 Left 0
WINDOW 39 0 0 Left 0
SYMATTR InstName V1
SYMATTR Value 12
SYMBOL res -272 432 R0
SYMATTR InstName R1
SYMATTR Value 62k
SYMBOL res 544 432 R0
SYMATTR InstName R2
SYMATTR Value 120k
SYMBOL cap -192 256 R0
SYMATTR InstName C4
SYMATTR Value 4.7µ
SYMBOL res -192 128 R0
SYMATTR InstName R3
SYMATTR Value 24
SYMBOL cap -128 544 R0
SYMATTR InstName C3
SYMATTR Value 2.4n
SYMBOL res -128 608 R0
SYMATTR InstName R5
SYMATTR Value 8.87k
SYMBOL res 800 -64 R90
WINDOW 0 0 56 VBottom 2
WINDOW 3 32 56 VTop 2
SYMATTR InstName R6
SYMATTR Value 100K
SYMBOL res 640 -208 R0
SYMATTR InstName R7
SYMATTR Value 44.2k
SYMBOL LTM4653 208 192 R0
SYMATTR InstName U2
SYMBOL cap 720 -320 R0
WINDOW 3 56 46 Left 2
WINDOW 123 56 72 Left 2
WINDOW 0 57 22 Left 2
SYMATTR Value 39.162µ
SYMATTR Value2 x4
SYMATTR InstName Coc1
SYMATTR SpiceLine Rser=2.17m Lser=0.2n
SYMBOL voltage -768 400 R0
WINDOW 123 0 0 Left 0
WINDOW 39 0 0 Left 0
SYMATTR InstName V2
SYMATTR Value PULSE(0 3.3 0 1e-9 1e-9 0.25e-6 0.5e-6)
SYMBOL res 1104 -192 R0
SYMATTR InstName R8
SYMATTR Value '6/0.01'
SYMBOL current 1408 -352 R0
WINDOW 123 0 0 Left 0
WINDOW 39 0 0 Left 0
SYMATTR InstName I2
SYMATTR Value PWL(0 0 2m 0 2.00001m 1)
SYMBOL fra 512 -256 R0
SYMATTR InstName @1
SYMATTR SpiceLine delay=2m fstart=2.1875K fend=560K oct=2 fcoarse=17.5K pp0=192m pp1=12m f0=2.1875K f1=35K tavgmin=50µ tsettle=28.5714µ
SYMBOL cap 976 -160 R0
SYMATTR InstName C1
SYMATTR Value 22µ
SYMATTR SpiceLine Rser=40m Lser=1.7n
SYMBOL res 976 -256 R0
SYMATTR InstName R4
SYMATTR Value 0.5
SYMBOL cap -208 592 R0
SYMATTR InstName C5
SYMATTR Value 10p
TEXT 552 616 Left 2 ;.tran 2.5m startup
TEXT 552 672 Left 2 !.fra startup
